##-------------------------------------------
## This file was created by mesh2scattering
<<<<<<<< HEAD:examples/project/reference/NumCalc/source_6/NC.inp
## Date: 2025-03-03
##-------------------------------------------
mesh2scattering 0.1.4
##
reference
========
## Date: 2025-03-02
##-------------------------------------------
mesh2scattering 0.1.4
##
low_complexity_project
>>>>>>>> develop:tests/resources/numcalc/low_complexity_project/NumCalc/source_2/NC.inp
##
## Controlparameter I
0
##
## Controlparameter II
<<<<<<<< HEAD:examples/project/reference/NumCalc/source_6/NC.inp
1 4 0.000001 0.00e+00 1 0 0
##
## Load Frequency Curve 
0 5
0.000000 0.000000e+00 0.0
0.000001 0.100000e+04 0.0
0.000002 0.200000e+04 0.0
0.000003 0.300000e+04 0.0
0.000004 0.400000e+04 0.0
##
## 1. Main Parameters I
2 24648 12328 0 0 2 1 4 0
##
## 2. Main Parameters II
1 0 0 0.0000e+00 0 0
========
1 2 0.000001 0.00e+00 1 0 0
##
## Load Frequency Curve 
0 3
0.000000 0.000000e+00 0.0
0.000001 0.010000e+04 0.0
0.000002 0.020000e+04 0.0
##
## 1. Main Parameters I
2 1224 616 0 0 2 1 4 0
##
## 2. Main Parameters II
0 1 0 0.0000e+00 0 0
>>>>>>>> develop:tests/resources/numcalc/low_complexity_project/NumCalc/source_2/NC.inp
##
## 3. Main Parameters III
0
##
## 4. Main Parameters IV
346.18 1.1839 1.0
##
NODES
../../ObjectMeshes/Reference/Nodes.txt
../../EvaluationGrids/example_grid/Nodes.txt
##
ELEMENTS
../../ObjectMeshes/Reference/Elements.txt
../../EvaluationGrids/example_grid/Elements.txt
##
# SYMMETRY
# 0 0 0
# 0.0000e+00 0.0000e+00 0.0000e+00
##
BOUNDARY
RETU
##
<<<<<<<< HEAD:examples/project/reference/NumCalc/source_6/NC.inp
PLANE WAVES
0 -8.660254037844386 -0.0 -5.000000000000001 0.1 -1 0.0 -1
========
POINT SOURCES
0 0.0 0.0 4.0 0.1 -1 0.0 -1
>>>>>>>> develop:tests/resources/numcalc/low_complexity_project/NumCalc/source_2/NC.inp
##
# CURVES
##
POST PROCESS
##
END
